<?xml version="1.0" encoding="UTF-8"?>

<!-- generated on 02/09/22 14:18:13 by Eclipse SUMO netedit Version 1.8.0
<configuration xmlns:xsi="http://www.w3.org/2001/XMLSchema-instance" xsi:noNamespaceSchemaLocation="http://sumo.dlr.de/xsd/netconvertConfiguration.xsd">

    <input>
        <sumo-net-file value="D:\BaiduNetdiskDownload\sumo-win64extra-1.8.0\sumo-1.8.0\file\MATLAB_synthesis2\1.net.xml"/>
    </input>

    <output>
        <output-file value="D:\BaiduNetdiskDownload\sumo-win64extra-1.8.0\sumo-1.8.0\file\MATLAB_synthesis2\1.net.xml"/>
    </output>

    <processing>
        <geometry.min-radius.fix.railways value="false"/>
        <geometry.max-grade.fix value="false"/>
        <offset.disable-normalization value="true"/>
        <lefthand value="false"/>
    </processing>

    <junctions>
        <no-turnarounds value="true"/>
        <junctions.corner-detail value="5"/>
        <junctions.limit-turn-speed value="5.5"/>
        <rectangular-lane-cut value="false"/>
    </junctions>

    <pedestrian>
        <walkingareas value="false"/>
    </pedestrian>

    <report>
        <aggregate-warnings value="5"/>
    </report>

</configuration>
-->

<net version="1.6" junctionCornerDetail="5" limitTurnSpeed="5.50" xmlns:xsi="http://www.w3.org/2001/XMLSchema-instance" xsi:noNamespaceSchemaLocation="http://sumo.dlr.de/xsd/net_file.xsd">

    <location netOffset="0.00,0.00" convBoundary="-30.16,-30000.00,50000.00,10000.00" origBoundary="-10000000000.00,-10000000000.00,10000000000.00,10000000000.00" projParameter="!"/>

    <edge id=":gneJ1_0" function="internal">
        <lane id=":gneJ1_0_0" index="0" speed="4.25" length="2.46" shape="1.44,-5.24 1.71,-5.00 1.93,-4.87 2.18,-4.81 2.54,-4.80"/>
        <lane id=":gneJ1_0_1" index="1" speed="6.74" length="2.46" shape="-0.75,-2.91 0.06,-2.19 0.71,-1.80 1.46,-1.63 2.54,-1.60"/>
    </edge>
    <edge id=":gneJ10_0" function="internal">
        <lane id=":gneJ10_0_0" index="0" speed="11.11" length="300.00" shape="8700.00,-4.80 9000.00,-4.80 9000.00,-4.80"/>
        <lane id=":gneJ10_0_1" index="1" speed="11.11" length="300.00" shape="8700.00,-1.60 9000.00,-1.60 9000.00,-1.60"/>
    </edge>
    <edge id=":gneJ100_0" function="internal">
        <lane id=":gneJ100_0_0" index="0" speed="9.72" length="0.10" shape="46000.00,4.80,355.00 46000.00,4.80,355.00"/>
        <lane id=":gneJ100_0_1" index="1" speed="9.72" length="0.10" shape="46000.00,1.60,355.00 46000.00,1.60,355.00"/>
    </edge>
    <edge id=":gneJ101_0" function="internal">
        <lane id=":gneJ101_0_0" index="0" speed="8.45" length="0.10" shape="45000.00,4.80,344.00 45000.00,4.80,344.00"/>
        <lane id=":gneJ101_0_1" index="1" speed="8.45" length="0.10" shape="45000.00,1.60,344.00 45000.00,1.60,344.00"/>
    </edge>
    <edge id=":gneJ102_0" function="internal">
        <lane id=":gneJ102_0_0" index="0" speed="7.50" length="0.10" shape="44000.00,4.80,333.00 44000.00,4.80,333.00"/>
        <lane id=":gneJ102_0_1" index="1" speed="7.50" length="0.10" shape="44000.00,1.60,333.00 44000.00,1.60,333.00"/>
    </edge>
    <edge id=":gneJ103_0" function="internal">
        <lane id=":gneJ103_0_0" index="0" speed="10.00" length="0.10" shape="43000.00,4.80,322.00 43000.00,4.80,322.00"/>
        <lane id=":gneJ103_0_1" index="1" speed="10.00" length="0.10" shape="43000.00,1.60,322.00 43000.00,1.60,322.00"/>
    </edge>
    <edge id=":gneJ104_0" function="internal">
        <lane id=":gneJ104_0_0" index="0" speed="8.50" length="0.10" shape="42000.00,4.80,311.00 42000.00,4.80,311.00"/>
        <lane id=":gneJ104_0_1" index="1" speed="8.50" length="0.10" shape="42000.00,1.60,311.00 42000.00,1.60,311.00"/>
    </edge>
    <edge id=":gneJ105_0" function="internal">
        <lane id=":gneJ105_0_0" index="0" speed="9.50" length="0.10" shape="41000.00,4.80,302.00 41000.00,4.80,302.00"/>
        <lane id=":gneJ105_0_1" index="1" speed="9.50" length="0.10" shape="41000.00,1.60,302.00 41000.00,1.60,302.00"/>
    </edge>
    <edge id=":gneJ106_0" function="internal">
        <lane id=":gneJ106_0_0" index="0" speed="6.08" length="7.74" shape="40000.00,4.80,296.00 39997.90,4.50,296.00 39996.40,3.60,296.00 39995.50,2.10,296.00 39995.20,0.00,296.00"/>
    </edge>
    <edge id=":gneJ106_1" function="internal">
        <lane id=":gneJ106_1_0" index="0" speed="3.90" length="2.58" shape="40000.00,1.60,296.00 39999.30,1.50,296.00 39998.80,1.20,296.00 39998.50,0.70,296.00 39998.40,0.00,296.00"/>
    </edge>
    <edge id=":gneJ107_0" function="internal">
        <lane id=":gneJ107_0_0" index="0" speed="9.45" length="0.10" shape="39995.20,-1000.00,333.00 39995.20,-1000.00,333.00"/>
        <lane id=":gneJ107_0_1" index="1" speed="9.45" length="0.10" shape="39998.40,-1000.00,333.00 39998.40,-1000.00,333.00"/>
    </edge>
    <edge id=":gneJ108_0" function="internal">
        <lane id=":gneJ108_0_0" index="0" speed="6.00" length="0.10" shape="39995.20,-2000.00,345.00 39995.20,-2000.00,345.00"/>
        <lane id=":gneJ108_0_1" index="1" speed="6.00" length="0.10" shape="39998.40,-2000.00,345.00 39998.40,-2000.00,345.00"/>
    </edge>
    <edge id=":gneJ109_0" function="internal">
        <lane id=":gneJ109_0_0" index="0" speed="7.50" length="0.10" shape="39995.20,-3000.00,380.00 39995.20,-3000.00,380.00"/>
        <lane id=":gneJ109_0_1" index="1" speed="7.50" length="0.10" shape="39998.40,-3000.00,380.00 39998.40,-3000.00,380.00"/>
    </edge>
    <edge id=":gneJ11_0" function="internal">
        <lane id=":gneJ11_0_0" index="0" speed="6.08" length="7.74" shape="10000.00,-4.80 10002.10,-4.50 10003.60,-3.60 10004.50,-2.10 10004.80,0.00"/>
    </edge>
    <edge id=":gneJ11_1" function="internal">
        <lane id=":gneJ11_1_0" index="0" speed="3.90" length="2.58" shape="10000.00,-1.60 10000.70,-1.50 10001.20,-1.20 10001.50,-0.70 10001.60,0.00"/>
    </edge>
    <edge id=":gneJ110_0" function="internal">
        <lane id=":gneJ110_0_0" index="0" speed="8.50" length="3.00" shape="39995.20,-4000.00,412.00 39995.20,-4003.00,412.08"/>
        <lane id=":gneJ110_0_1" index="1" speed="8.50" length="3.00" shape="39998.40,-4000.00,412.00 39998.40,-4003.00,412.08"/>
    </edge>
    <edge id=":gneJ111_0" function="internal">
        <lane id=":gneJ111_0_0" index="0" speed="9.50" length="0.10" shape="39995.20,-5000.00,440.00 39995.20,-5000.00,440.00"/>
        <lane id=":gneJ111_0_1" index="1" speed="9.50" length="0.10" shape="39998.40,-5000.00,440.00 39998.40,-5000.00,440.00"/>
    </edge>
    <edge id=":gneJ112_0" function="internal">
        <lane id=":gneJ112_0_0" index="0" speed="8.50" length="0.10" shape="39995.20,-6000.00,467.00 39995.20,-6000.00,467.00"/>
        <lane id=":gneJ112_0_1" index="1" speed="8.50" length="0.10" shape="39998.40,-6000.00,467.00 39998.40,-6000.00,467.00"/>
    </edge>
    <edge id=":gneJ113_0" function="internal">
        <lane id=":gneJ113_0_0" index="0" speed="10.45" length="0.10" shape="39995.20,-7000.00,499.00 39995.20,-7000.00,499.00"/>
        <lane id=":gneJ113_0_1" index="1" speed="10.45" length="0.10" shape="39998.40,-7000.00,499.00 39998.40,-7000.00,499.00"/>
    </edge>
    <edge id=":gneJ114_0" function="internal">
        <lane id=":gneJ114_0_0" index="0" speed="9.79" length="0.10" shape="39995.20,-8000.00,505.00 39995.20,-8000.00,505.00"/>
        <lane id=":gneJ114_0_1" index="1" speed="9.79" length="0.10" shape="39998.40,-8000.00,505.00 39998.40,-8000.00,505.00"/>
    </edge>
    <edge id=":gneJ115_0" function="internal">
        <lane id=":gneJ115_0_0" index="0" speed="6.15" length="0.10" shape="39995.20,-9000.00,544.00 39995.20,-9000.00,544.00"/>
        <lane id=":gneJ115_0_1" index="1" speed="6.15" length="0.10" shape="39998.40,-9000.00,544.00 39998.40,-9000.00,544.00"/>
    </edge>
    <edge id=":gneJ116_0" function="internal">
        <lane id=":gneJ116_0_0" index="0" speed="3.90" length="2.58" shape="39995.20,-9993.60,554.93 39995.10,-9994.30,554.93 39994.80,-9994.80,554.93 39994.30,-9995.10,554.93 39993.60,-9995.20,554.93"/>
    </edge>
    <edge id=":gneJ116_1" function="internal">
        <lane id=":gneJ116_1_0" index="0" speed="6.08" length="7.74" shape="39998.40,-9993.60,554.93 39998.10,-9995.70,554.93 39997.20,-9997.20,554.93 39995.70,-9998.10,554.93 39993.60,-9998.40,554.93"/>
    </edge>
    <edge id=":gneJ117_0" function="internal">
        <lane id=":gneJ117_0_0" index="0" speed="13.20" length="0.10" shape="39000.00,-9995.20,544.00 39000.00,-9995.20,544.00"/>
        <lane id=":gneJ117_0_1" index="1" speed="13.20" length="0.10" shape="39000.00,-9998.40,544.00 39000.00,-9998.40,544.00"/>
    </edge>
    <edge id=":gneJ118_0" function="internal">
        <lane id=":gneJ118_0_0" index="0" speed="12.75" length="0.10" shape="38000.00,-9995.20,521.00 38000.00,-9995.20,521.00"/>
        <lane id=":gneJ118_0_1" index="1" speed="12.75" length="0.10" shape="38000.00,-9998.40,521.00 38000.00,-9998.40,521.00"/>
    </edge>
    <edge id=":gneJ119_0" function="internal">
        <lane id=":gneJ119_0_0" index="0" speed="11.80" length="0.10" shape="37000.00,-9995.20,500.00 37000.00,-9995.20,500.00"/>
        <lane id=":gneJ119_0_1" index="1" speed="11.80" length="0.10" shape="37000.00,-9998.40,500.00 37000.00,-9998.40,500.00"/>
    </edge>
    <edge id=":gneJ120_0" function="internal">
        <lane id=":gneJ120_0_0" index="0" speed="10.25" length="0.10" shape="36000.00,-9995.20,497.00 36000.00,-9995.20,497.00"/>
        <lane id=":gneJ120_0_1" index="1" speed="10.25" length="0.10" shape="36000.00,-9998.40,497.00 36000.00,-9998.40,497.00"/>
    </edge>
    <edge id=":gneJ121_0" function="internal">
        <lane id=":gneJ121_0_0" index="0" speed="8.70" length="0.10" shape="35000.00,-9995.20,488.00 35000.00,-9995.20,488.00"/>
        <lane id=":gneJ121_0_1" index="1" speed="8.70" length="0.10" shape="35000.00,-9998.40,488.00 35000.00,-9998.40,488.00"/>
    </edge>
    <edge id=":gneJ122_0" function="internal">
        <lane id=":gneJ122_0_0" index="0" speed="6.85" length="0.10" shape="34000.00,-9995.20,450.00 34000.00,-9995.20,450.00"/>
        <lane id=":gneJ122_0_1" index="1" speed="6.85" length="0.10" shape="34000.00,-9998.40,450.00 34000.00,-9998.40,450.00"/>
    </edge>
    <edge id=":gneJ123_0" function="internal">
        <lane id=":gneJ123_0_0" index="0" speed="7.90" length="0.10" shape="33000.00,-9995.20,411.00 33000.00,-9995.20,411.00"/>
        <lane id=":gneJ123_0_1" index="1" speed="7.90" length="0.10" shape="33000.00,-9998.40,411.00 33000.00,-9998.40,411.00"/>
    </edge>
    <edge id=":gneJ124_0" function="internal">
        <lane id=":gneJ124_0_0" index="0" speed="9.10" length="0.10" shape="32000.00,-9995.20,400.00 32000.00,-9995.20,400.00"/>
        <lane id=":gneJ124_0_1" index="1" speed="9.10" length="0.10" shape="32000.00,-9998.40,400.00 32000.00,-9998.40,400.00"/>
    </edge>
    <edge id=":gneJ125_0" function="internal">
        <lane id=":gneJ125_0_0" index="0" speed="11.25" length="0.10" shape="31000.00,-9995.20,393.00 31000.00,-9995.20,393.00"/>
        <lane id=":gneJ125_0_1" index="1" speed="11.25" length="0.10" shape="31000.00,-9998.40,393.00 31000.00,-9998.40,393.00"/>
    </edge>
    <edge id=":gneJ126_0" function="internal">
        <lane id=":gneJ126_0_0" index="0" speed="6.08" length="7.74" shape="30000.00,-9995.20,360.00 29997.90,-9995.50,360.00 29996.40,-9996.40,360.00 29995.50,-9997.90,360.00 29995.20,-10000.00,360.00"/>
    </edge>
    <edge id=":gneJ126_1" function="internal">
        <lane id=":gneJ126_1_0" index="0" speed="3.90" length="2.58" shape="30000.00,-9998.40,360.00 29999.30,-9998.50,360.00 29998.80,-9998.80,360.00 29998.50,-9999.30,360.00 29998.40,-10000.00,360.00"/>
    </edge>
    <edge id=":gneJ127_0" function="internal">
        <lane id=":gneJ127_0_0" index="0" speed="25.00" length="0.10" shape="29995.20,-11000.00,360.00 29995.20,-11000.00,360.00"/>
        <lane id=":gneJ127_0_1" index="1" speed="25.00" length="0.10" shape="29998.40,-11000.00,360.00 29998.40,-11000.00,360.00"/>
    </edge>
    <edge id=":gneJ128_0" function="internal">
        <lane id=":gneJ128_0_0" index="0" speed="25.00" length="0.10" shape="29995.20,-12000.00,360.00 29995.20,-12000.00,360.00"/>
        <lane id=":gneJ128_0_1" index="1" speed="25.00" length="0.10" shape="29998.40,-12000.00,360.00 29998.40,-12000.00,360.00"/>
    </edge>
    <edge id=":gneJ129_0" function="internal">
        <lane id=":gneJ129_0_0" index="0" speed="25.00" length="0.10" shape="29995.20,-13000.00,360.00 29995.20,-13000.00,360.00"/>
        <lane id=":gneJ129_0_1" index="1" speed="25.00" length="0.10" shape="29998.40,-13000.00,360.00 29998.40,-13000.00,360.00"/>
    </edge>
    <edge id=":gneJ130_0" function="internal">
        <lane id=":gneJ130_0_0" index="0" speed="25.00" length="0.10" shape="29995.20,-14000.00,360.00 29995.20,-14000.00,360.00"/>
        <lane id=":gneJ130_0_1" index="1" speed="25.00" length="0.10" shape="29998.40,-14000.00,360.00 29998.40,-14000.00,360.00"/>
    </edge>
    <edge id=":gneJ131_0" function="internal">
        <lane id=":gneJ131_0_0" index="0" speed="25.00" length="0.10" shape="29995.20,-15000.00,360.00 29995.20,-15000.00,360.00"/>
        <lane id=":gneJ131_0_1" index="1" speed="25.00" length="0.10" shape="29998.40,-15000.00,360.00 29998.40,-15000.00,360.00"/>
    </edge>
    <edge id=":gneJ132_0" function="internal">
        <lane id=":gneJ132_0_0" index="0" speed="25.00" length="0.10" shape="29995.20,-16000.00,360.00 29995.20,-16000.00,360.00"/>
        <lane id=":gneJ132_0_1" index="1" speed="25.00" length="0.10" shape="29998.40,-16000.00,360.00 29998.40,-16000.00,360.00"/>
    </edge>
    <edge id=":gneJ133_0" function="internal">
        <lane id=":gneJ133_0_0" index="0" speed="25.00" length="0.10" shape="29995.20,-17000.00,360.00 29995.20,-17000.00,360.00"/>
        <lane id=":gneJ133_0_1" index="1" speed="25.00" length="0.10" shape="29998.40,-17000.00,360.00 29998.40,-17000.00,360.00"/>
    </edge>
    <edge id=":gneJ134_0" function="internal">
        <lane id=":gneJ134_0_0" index="0" speed="25.00" length="0.10" shape="29995.20,-18000.00,360.00 29995.20,-18000.00,360.00"/>
        <lane id=":gneJ134_0_1" index="1" speed="25.00" length="0.10" shape="29998.40,-18000.00,360.00 29998.40,-18000.00,360.00"/>
    </edge>
    <edge id=":gneJ135_0" function="internal">
        <lane id=":gneJ135_0_0" index="0" speed="25.00" length="0.10" shape="29995.20,-19000.00,360.00 29995.20,-19000.00,360.00"/>
        <lane id=":gneJ135_0_1" index="1" speed="25.00" length="0.10" shape="29998.40,-19000.00,360.00 29998.40,-19000.00,360.00"/>
    </edge>
    <edge id=":gneJ136_0" function="internal">
        <lane id=":gneJ136_0_0" index="0" speed="25.00" length="0.10" shape="29995.20,-20000.00,360.00 29995.20,-20000.00,360.00"/>
        <lane id=":gneJ136_0_1" index="1" speed="25.00" length="0.10" shape="29998.40,-20000.00,360.00 29998.40,-20000.00,360.00"/>
    </edge>
    <edge id=":gneJ137_0" function="internal">
        <lane id=":gneJ137_0_0" index="0" speed="25.00" length="0.10" shape="29995.20,-21000.00,360.00 29995.20,-21000.00,360.00"/>
        <lane id=":gneJ137_0_1" index="1" speed="25.00" length="0.10" shape="29998.40,-21000.00,360.00 29998.40,-21000.00,360.00"/>
    </edge>
    <edge id=":gneJ138_0" function="internal">
        <lane id=":gneJ138_0_0" index="0" speed="25.00" length="0.10" shape="29995.20,-22000.00,360.00 29995.20,-22000.00,360.00"/>
        <lane id=":gneJ138_0_1" index="1" speed="25.00" length="0.10" shape="29998.40,-22000.00,360.00 29998.40,-22000.00,360.00"/>
    </edge>
    <edge id=":gneJ139_0" function="internal">
        <lane id=":gneJ139_0_0" index="0" speed="25.00" length="0.10" shape="29995.20,-23000.00,360.00 29995.20,-23000.00,360.00"/>
        <lane id=":gneJ139_0_1" index="1" speed="25.00" length="0.10" shape="29998.40,-23000.00,360.00 29998.40,-23000.00,360.00"/>
    </edge>
    <edge id=":gneJ14_0" function="internal">
        <lane id=":gneJ14_0_0" index="0" speed="19.44" length="0.10" shape="10004.80,1000.00 10004.80,1000.00"/>
        <lane id=":gneJ14_0_1" index="1" speed="19.44" length="0.10" shape="10001.60,1000.00 10001.60,1000.00"/>
    </edge>
    <edge id=":gneJ140_0" function="internal">
        <lane id=":gneJ140_0_0" index="0" speed="25.00" length="0.10" shape="29995.20,-24000.00,360.00 29995.20,-24000.00,360.00"/>
        <lane id=":gneJ140_0_1" index="1" speed="25.00" length="0.10" shape="29998.40,-24000.00,360.00 29998.40,-24000.00,360.00"/>
    </edge>
    <edge id=":gneJ141_0" function="internal">
        <lane id=":gneJ141_0_0" index="0" speed="25.00" length="0.10" shape="29995.20,-25000.00,360.00 29995.20,-25000.00,360.00"/>
        <lane id=":gneJ141_0_1" index="1" speed="25.00" length="0.10" shape="29998.40,-25000.00,360.00 29998.40,-25000.00,360.00"/>
    </edge>
    <edge id=":gneJ142_0" function="internal">
        <lane id=":gneJ142_0_0" index="0" speed="25.00" length="0.10" shape="29995.20,-26000.00,360.00 29995.20,-26000.00,360.00"/>
        <lane id=":gneJ142_0_1" index="1" speed="25.00" length="0.10" shape="29998.40,-26000.00,360.00 29998.40,-26000.00,360.00"/>
    </edge>
    <edge id=":gneJ143_0" function="internal">
        <lane id=":gneJ143_0_0" index="0" speed="25.00" length="0.10" shape="29995.20,-27000.00,360.00 29995.20,-27000.00,360.00"/>
        <lane id=":gneJ143_0_1" index="1" speed="25.00" length="0.10" shape="29998.40,-27000.00,360.00 29998.40,-27000.00,360.00"/>
    </edge>
    <edge id=":gneJ144_0" function="internal">
        <lane id=":gneJ144_0_0" index="0" speed="25.00" length="0.10" shape="29995.20,-28000.00,360.00 29995.20,-28000.00,360.00"/>
        <lane id=":gneJ144_0_1" index="1" speed="25.00" length="0.10" shape="29998.40,-28000.00,360.00 29998.40,-28000.00,360.00"/>
    </edge>
    <edge id=":gneJ145_0" function="internal">
        <lane id=":gneJ145_0_0" index="0" speed="25.00" length="0.10" shape="29995.20,-29000.00,360.00 29995.20,-29000.00,360.00"/>
        <lane id=":gneJ145_0_1" index="1" speed="25.00" length="0.10" shape="29998.40,-29000.00,360.00 29998.40,-29000.00,360.00"/>
    </edge>
    <edge id=":gneJ15_0" function="internal">
        <lane id=":gneJ15_0_0" index="0" speed="19.44" length="0.10" shape="10004.80,2000.00 10004.80,2000.00"/>
        <lane id=":gneJ15_0_1" index="1" speed="19.44" length="0.10" shape="10001.60,2000.00 10001.60,2000.00"/>
    </edge>
    <edge id=":gneJ16_0" function="internal">
        <lane id=":gneJ16_0_0" index="0" speed="19.44" length="0.10" shape="10004.80,3000.00 10004.80,3000.00"/>
        <lane id=":gneJ16_0_1" index="1" speed="19.44" length="0.10" shape="10001.60,3000.00 10001.60,3000.00"/>
    </edge>
    <edge id=":gneJ17_0" function="internal">
        <lane id=":gneJ17_0_0" index="0" speed="19.44" length="0.10" shape="10004.80,4000.00 10004.80,4000.00"/>
        <lane id=":gneJ17_0_1" index="1" speed="19.44" length="0.10" shape="10001.60,4000.00 10001.60,4000.00"/>
    </edge>
    <edge id=":gneJ18_0" function="internal">
        <lane id=":gneJ18_0_0" index="0" speed="19.44" length="0.10" shape="10004.80,5000.00 10004.80,5000.00"/>
        <lane id=":gneJ18_0_1" index="1" speed="19.44" length="0.10" shape="10001.60,5000.00 10001.60,5000.00"/>
    </edge>
    <edge id=":gneJ19_0" function="internal">
        <lane id=":gneJ19_0_0" index="0" speed="19.44" length="0.10" shape="10004.80,6000.00 10004.80,6000.00"/>
        <lane id=":gneJ19_0_1" index="1" speed="19.44" length="0.10" shape="10001.60,6000.00 10001.60,6000.00"/>
    </edge>
    <edge id=":gneJ2_0" function="internal">
        <lane id=":gneJ2_0_0" index="0" speed="11.11" length="10.00" shape="990.00,-4.80 1000.00,-4.80 1000.00,-4.80"/>
        <lane id=":gneJ2_0_1" index="1" speed="11.11" length="10.00" shape="990.00,-1.60 1000.00,-1.60 1000.00,-1.60"/>
    </edge>
    <edge id=":gneJ20_0" function="internal">
        <lane id=":gneJ20_0_0" index="0" speed="19.44" length="0.10" shape="10004.80,7000.00 10004.80,7000.00"/>
        <lane id=":gneJ20_0_1" index="1" speed="19.44" length="0.10" shape="10001.60,7000.00 10001.60,7000.00"/>
    </edge>
    <edge id=":gneJ21_0" function="internal">
        <lane id=":gneJ21_0_0" index="0" speed="19.44" length="0.10" shape="10004.80,8000.00 10004.80,8000.00"/>
        <lane id=":gneJ21_0_1" index="1" speed="19.44" length="0.10" shape="10001.60,8000.00 10001.60,8000.00"/>
    </edge>
    <edge id=":gneJ22_0" function="internal">
        <lane id=":gneJ22_0_0" index="0" speed="19.44" length="0.10" shape="10004.80,9000.00 10004.80,9000.00"/>
        <lane id=":gneJ22_0_1" index="1" speed="19.44" length="0.10" shape="10001.60,9000.00 10001.60,9000.00"/>
    </edge>
    <edge id=":gneJ23_0" function="internal">
        <lane id=":gneJ23_0_0" index="0" speed="3.90" length="2.58" shape="10004.80,9993.60 10004.90,9994.30 10005.20,9994.80 10005.70,9995.10 10006.40,9995.20"/>
    </edge>
    <edge id=":gneJ23_1" function="internal">
        <lane id=":gneJ23_1_0" index="0" speed="6.08" length="7.74" shape="10001.60,9993.60 10001.90,9995.70 10002.80,9997.20 10004.30,9998.10 10006.40,9998.40"/>
    </edge>
    <edge id=":gneJ24_0" function="internal">
        <lane id=":gneJ24_0_0" index="0" speed="25.00" length="0.10" shape="11000.00,9995.20 11000.00,9995.20"/>
        <lane id=":gneJ24_0_1" index="1" speed="25.00" length="0.10" shape="11000.00,9998.40 11000.00,9998.40"/>
    </edge>
    <edge id=":gneJ25_0" function="internal">
        <lane id=":gneJ25_0_0" index="0" speed="25.00" length="0.10" shape="12000.00,9995.20 12000.00,9995.20"/>
        <lane id=":gneJ25_0_1" index="1" speed="25.00" length="0.10" shape="12000.00,9998.40 12000.00,9998.40"/>
    </edge>
    <edge id=":gneJ26_0" function="internal">
        <lane id=":gneJ26_0_0" index="0" speed="25.00" length="0.10" shape="13000.00,9995.20 13000.00,9995.20"/>
        <lane id=":gneJ26_0_1" index="1" speed="25.00" length="0.10" shape="13000.00,9998.40 13000.00,9998.40"/>
    </edge>
    <edge id=":gneJ27_0" function="internal">
        <lane id=":gneJ27_0_0" index="0" speed="25.00" length="0.10" shape="14000.00,9995.20 14000.00,9995.20"/>
        <lane id=":gneJ27_0_1" index="1" speed="25.00" length="0.10" shape="14000.00,9998.40 14000.00,9998.40"/>
    </edge>
    <edge id=":gneJ28_0" function="internal">
        <lane id=":gneJ28_0_0" index="0" speed="25.00" length="0.10" shape="15000.00,9995.20 15000.00,9995.20"/>
        <lane id=":gneJ28_0_1" index="1" speed="25.00" length="0.10" shape="15000.00,9998.40 15000.00,9998.40"/>
    </edge>
    <edge id=":gneJ29_0" function="internal">
        <lane id=":gneJ29_0_0" index="0" speed="25.00" length="0.10" shape="16000.00,9995.20 16000.00,9995.20"/>
        <lane id=":gneJ29_0_1" index="1" speed="25.00" length="0.10" shape="16000.00,9998.40 16000.00,9998.40"/>
    </edge>
    <edge id=":gneJ3_0" function="internal">
        <lane id=":gneJ3_0_0" index="0" speed="11.11" length="50.00" shape="1950.00,-4.80 2000.00,-4.80 2000.00,-4.80"/>
        <lane id=":gneJ3_0_1" index="1" speed="11.11" length="50.00" shape="1950.00,-1.60 2000.00,-1.60 2000.00,-1.60"/>
    </edge>
    <edge id=":gneJ30_0" function="internal">
        <lane id=":gneJ30_0_0" index="0" speed="25.00" length="0.10" shape="17000.00,9995.20 17000.00,9995.20"/>
        <lane id=":gneJ30_0_1" index="1" speed="25.00" length="0.10" shape="17000.00,9998.40 17000.00,9998.40"/>
    </edge>
    <edge id=":gneJ31_0" function="internal">
        <lane id=":gneJ31_0_0" index="0" speed="25.00" length="0.10" shape="18000.00,9995.20 18000.00,9995.20"/>
        <lane id=":gneJ31_0_1" index="1" speed="25.00" length="0.10" shape="18000.00,9998.40 18000.00,9998.40"/>
    </edge>
    <edge id=":gneJ32_0" function="internal">
        <lane id=":gneJ32_0_0" index="0" speed="25.00" length="0.10" shape="19000.00,9995.20 19000.00,9995.20"/>
        <lane id=":gneJ32_0_1" index="1" speed="25.00" length="0.10" shape="19000.00,9998.40 19000.00,9998.40"/>
    </edge>
    <edge id=":gneJ33_0" function="internal">
        <lane id=":gneJ33_0_0" index="0" speed="25.00" length="0.10" shape="20000.00,9995.20 20000.00,9995.20"/>
        <lane id=":gneJ33_0_1" index="1" speed="25.00" length="0.10" shape="20000.00,9998.40 20000.00,9998.40"/>
    </edge>
    <edge id=":gneJ34_0" function="internal">
        <lane id=":gneJ34_0_0" index="0" speed="25.00" length="0.10" shape="21000.00,9995.20 21000.00,9995.20"/>
        <lane id=":gneJ34_0_1" index="1" speed="25.00" length="0.10" shape="21000.00,9998.40 21000.00,9998.40"/>
    </edge>
    <edge id=":gneJ35_0" function="internal">
        <lane id=":gneJ35_0_0" index="0" speed="25.00" length="0.10" shape="22000.00,9995.20 22000.00,9995.20"/>
        <lane id=":gneJ35_0_1" index="1" speed="25.00" length="0.10" shape="22000.00,9998.40 22000.00,9998.40"/>
    </edge>
    <edge id=":gneJ36_0" function="internal">
        <lane id=":gneJ36_0_0" index="0" speed="25.00" length="0.10" shape="23000.00,9995.20 23000.00,9995.20"/>
        <lane id=":gneJ36_0_1" index="1" speed="25.00" length="0.10" shape="23000.00,9998.40 23000.00,9998.40"/>
    </edge>
    <edge id=":gneJ37_0" function="internal">
        <lane id=":gneJ37_0_0" index="0" speed="25.00" length="0.10" shape="24000.00,9995.20 24000.00,9995.20"/>
        <lane id=":gneJ37_0_1" index="1" speed="25.00" length="0.10" shape="24000.00,9998.40 24000.00,9998.40"/>
    </edge>
    <edge id=":gneJ38_0" function="internal">
        <lane id=":gneJ38_0_0" index="0" speed="25.00" length="0.10" shape="25000.00,9995.20 25000.00,9995.20"/>
        <lane id=":gneJ38_0_1" index="1" speed="25.00" length="0.10" shape="25000.00,9998.40 25000.00,9998.40"/>
    </edge>
    <edge id=":gneJ39_0" function="internal">
        <lane id=":gneJ39_0_0" index="0" speed="25.00" length="0.10" shape="26000.00,9995.20 26000.00,9995.20"/>
        <lane id=":gneJ39_0_1" index="1" speed="25.00" length="0.10" shape="26000.00,9998.40 26000.00,9998.40"/>
    </edge>
    <edge id=":gneJ4_0" function="internal">
        <lane id=":gneJ4_0_0" index="0" speed="11.11" length="100.00" shape="2900.00,-4.80 3000.00,-4.80 3000.00,-4.80"/>
        <lane id=":gneJ4_0_1" index="1" speed="11.11" length="100.00" shape="2900.00,-1.60 3000.00,-1.60 3000.00,-1.60"/>
    </edge>
    <edge id=":gneJ40_0" function="internal">
        <lane id=":gneJ40_0_0" index="0" speed="25.00" length="0.10" shape="27000.00,9995.20 27000.00,9995.20"/>
        <lane id=":gneJ40_0_1" index="1" speed="25.00" length="0.10" shape="27000.00,9998.40 27000.00,9998.40"/>
    </edge>
    <edge id=":gneJ41_0" function="internal">
        <lane id=":gneJ41_0_0" index="0" speed="25.00" length="0.10" shape="28000.00,9995.20 28000.00,9995.20"/>
        <lane id=":gneJ41_0_1" index="1" speed="25.00" length="0.10" shape="28000.00,9998.40 28000.00,9998.40"/>
    </edge>
    <edge id=":gneJ42_0" function="internal">
        <lane id=":gneJ42_0_0" index="0" speed="25.00" length="0.10" shape="29000.00,9995.20 29000.00,9995.20"/>
        <lane id=":gneJ42_0_1" index="1" speed="25.00" length="0.10" shape="29000.00,9998.40 29000.00,9998.40"/>
    </edge>
    <edge id=":gneJ43_0" function="internal">
        <lane id=":gneJ43_0_0" index="0" speed="25.00" length="0.10" shape="30000.00,9995.20 30000.00,9995.20"/>
        <lane id=":gneJ43_0_1" index="1" speed="25.00" length="0.10" shape="30000.00,9998.40 30000.00,9998.40"/>
    </edge>
    <edge id=":gneJ44_0" function="internal">
        <lane id=":gneJ44_0_0" index="0" speed="25.00" length="0.10" shape="31000.00,9995.20 31000.00,9995.20"/>
        <lane id=":gneJ44_0_1" index="1" speed="25.00" length="0.10" shape="31000.00,9998.40 31000.00,9998.40"/>
    </edge>
    <edge id=":gneJ45_0" function="internal">
        <lane id=":gneJ45_0_0" index="0" speed="25.00" length="0.10" shape="32000.00,9995.20 32000.00,9995.20"/>
        <lane id=":gneJ45_0_1" index="1" speed="25.00" length="0.10" shape="32000.00,9998.40 32000.00,9998.40"/>
    </edge>
    <edge id=":gneJ46_0" function="internal">
        <lane id=":gneJ46_0_0" index="0" speed="25.00" length="0.10" shape="33000.00,9995.20 33000.00,9995.20"/>
        <lane id=":gneJ46_0_1" index="1" speed="25.00" length="0.10" shape="33000.00,9998.40 33000.00,9998.40"/>
    </edge>
    <edge id=":gneJ47_0" function="internal">
        <lane id=":gneJ47_0_0" index="0" speed="25.00" length="0.10" shape="34000.00,9995.20 34000.00,9995.20"/>
        <lane id=":gneJ47_0_1" index="1" speed="25.00" length="0.10" shape="34000.00,9998.40 34000.00,9998.40"/>
    </edge>
    <edge id=":gneJ48_0" function="internal">
        <lane id=":gneJ48_0_0" index="0" speed="25.00" length="0.10" shape="35000.00,9995.20 35000.00,9995.20"/>
        <lane id=":gneJ48_0_1" index="1" speed="25.00" length="0.10" shape="35000.00,9998.40 35000.00,9998.40"/>
    </edge>
    <edge id=":gneJ49_0" function="internal">
        <lane id=":gneJ49_0_0" index="0" speed="25.00" length="0.10" shape="36000.00,9995.20 36000.00,9995.20"/>
        <lane id=":gneJ49_0_1" index="1" speed="25.00" length="0.10" shape="36000.00,9998.40 36000.00,9998.40"/>
    </edge>
    <edge id=":gneJ5_0" function="internal">
        <lane id=":gneJ5_0_0" index="0" speed="11.11" length="200.00" shape="3800.00,-4.80 4000.00,-4.80 4000.00,-4.80"/>
        <lane id=":gneJ5_0_1" index="1" speed="11.11" length="200.00" shape="3800.00,-1.60 4000.00,-1.60 4000.00,-1.60"/>
    </edge>
    <edge id=":gneJ50_0" function="internal">
        <lane id=":gneJ50_0_0" index="0" speed="25.00" length="0.10" shape="37000.00,9995.20 37000.00,9995.20"/>
        <lane id=":gneJ50_0_1" index="1" speed="25.00" length="0.10" shape="37000.00,9998.40 37000.00,9998.40"/>
    </edge>
    <edge id=":gneJ51_0" function="internal">
        <lane id=":gneJ51_0_0" index="0" speed="25.00" length="0.10" shape="38000.00,9995.20 38000.00,9995.20"/>
        <lane id=":gneJ51_0_1" index="1" speed="25.00" length="0.10" shape="38000.00,9998.40 38000.00,9998.40"/>
    </edge>
    <edge id=":gneJ52_0" function="internal">